&nam_enkf
   datestring="_datestring_",datapath="./",
   analpertwtnh=0.85,analpertwtsh=0.85,analpertwttr=0.85,
   covinflatemax=1.e2,covinflatemin=1,pseudo_rh=.true.,iassim_order=0,
   corrlengthnh=_corrlength_,corrlengthsh=_corrlength_,corrlengthtr=_corrlength_,
   lnsigcutoffnh=_lnsigcutoff_,lnsigcutoffsh=_lnsigcutoff_,lnsigcutofftr=_lnsigcutoff_,
   lnsigcutoffpsnh=_lnsigcutoff_,lnsigcutoffpssh=_lnsigcutoff_,lnsigcutoffpstr=_lnsigcutoff_,
   lnsigcutoffsatnh=_lnsigcutoff_,lnsigcutoffsatsh=_lnsigcutoff_,lnsigcutoffsattr=_lnsigcutoff_,
   obtimelnh=1.e30,obtimelsh=1.e30,obtimeltr=1.e30,
   saterrfact=1.0,numiter=1,
   sprd_tol=1.e30,paoverpb_thresh=0.98,
   nlons=_nlons_,nlats=_nlats_,nlevs=_nlevs_,nanals=_nanals_,
   deterministic=.true.,sortinc=.true.,lupd_satbiasc=.false.,
   reducedgrid=.true.,readin_localization=.false.,
   use_gfs_nemsio=.false.,use_gfs_ncio=.false.,imp_physics=11,lupp=.false.,
   univaroz=.false.,adp_anglebc=.true.,angord=4,use_edges=.false.,emiss_bc=.true.,
   letkf_flag=.false.,nobsl_max=10000,denkf=.false.,getkf=.false.,
   nhr_anal=6,nhr_state=6,use_qsatensmean=.false.,
   lobsdiag_forenkf=.false.,
   write_spread_diag=.false.,
   modelspace_vloc=.false.,
   use_correlated_oberrs=.false.,
   netcdf_diag=_netcdf_diag_,cnvw_option=.false.,
   paranc=.false.,write_fv3_incr=.false.,
   incvars_to_zero='NONE',
   smoothparm=-1,
   ldo_enscalc_option=_ldo_enscalc_option_,
/

&satobs_enkf
   sattypes_rad(1) = 'amsua_n15',     dsis(1) = 'amsua_n15',
   sattypes_rad(2) = 'amsua_n18',     dsis(2) = 'amsua_n18',
   sattypes_rad(3) = 'amsua_n19',     dsis(3) = 'amsua_n19',
   sattypes_rad(4) = 'amsub_n16',     dsis(4) = 'amsub_n16',
   sattypes_rad(5) = 'amsub_n17',     dsis(5) = 'amsub_n17',
   sattypes_rad(6) = 'amsua_aqua',    dsis(6) = 'amsua_aqua',
   sattypes_rad(7) = 'amsua_metop-a', dsis(7) = 'amsua_metop-a',
   sattypes_rad(8) = 'airs_aqua',     dsis(8) = 'airs_aqua',
   sattypes_rad(9) = 'hirs3_n17',     dsis(9) = 'hirs3_n17',
   sattypes_rad(10)= 'hirs4_n19',     dsis(10)= 'hirs4_n19',
   sattypes_rad(11)= 'hirs4_metop-a', dsis(11)= 'hirs4_metop-a',
   sattypes_rad(12)= 'mhs_n18',       dsis(12)= 'mhs_n18',
   sattypes_rad(13)= 'mhs_n19',       dsis(13)= 'mhs_n19',
   sattypes_rad(14)= 'mhs_metop-a',   dsis(14)= 'mhs_metop-a',
   sattypes_rad(15)= 'goes_img_g11',  dsis(15)= 'imgr_g11',
   sattypes_rad(16)= 'goes_img_g12',  dsis(16)= 'imgr_g12',
   sattypes_rad(17)= 'goes_img_g13',  dsis(17)= 'imgr_g13',
   sattypes_rad(18)= 'goes_img_g14',  dsis(18)= 'imgr_g14',
   sattypes_rad(19)= 'goes_img_g15',  dsis(19)= 'imgr_g15',
   sattypes_rad(20)= 'avhrr_n18',     dsis(20)= 'avhrr3_n18',
   sattypes_rad(21)= 'avhrr_metop-a', dsis(21)= 'avhrr3_metop-a',
   sattypes_rad(22)= 'avhrr_n19',     dsis(22)= 'avhrr3_n19',
   sattypes_rad(23)= 'amsre_aqua',    dsis(23)= 'amsre_aqua',
   sattypes_rad(24)= 'ssmis_f16',     dsis(24)= 'ssmis_f16',
   sattypes_rad(25)= 'ssmis_f17',     dsis(25)= 'ssmis_f17',
   sattypes_rad(26)= 'ssmis_f18',     dsis(26)= 'ssmis_f18',
   sattypes_rad(27)= 'ssmis_f19',     dsis(27)= 'ssmis_f19',
   sattypes_rad(28)= 'ssmis_f20',     dsis(28)= 'ssmis_f20',
   sattypes_rad(29)= 'sndrd1_g11',    dsis(29)= 'sndrD1_g11',
   sattypes_rad(30)= 'sndrd2_g11',    dsis(30)= 'sndrD2_g11',
   sattypes_rad(31)= 'sndrd3_g11',    dsis(31)= 'sndrD3_g11',
   sattypes_rad(32)= 'sndrd4_g11',    dsis(32)= 'sndrD4_g11',
   sattypes_rad(33)= 'sndrd1_g12',    dsis(33)= 'sndrD1_g12',
   sattypes_rad(34)= 'sndrd2_g12',    dsis(34)= 'sndrD2_g12',
   sattypes_rad(35)= 'sndrd3_g12',    dsis(35)= 'sndrD3_g12',
   sattypes_rad(36)= 'sndrd4_g12',    dsis(36)= 'sndrD4_g12',
   sattypes_rad(37)= 'sndrd1_g13',    dsis(37)= 'sndrD1_g13',
   sattypes_rad(38)= 'sndrd2_g13',    dsis(38)= 'sndrD2_g13',
   sattypes_rad(39)= 'sndrd3_g13',    dsis(39)= 'sndrD3_g13',
   sattypes_rad(40)= 'sndrd4_g13',    dsis(40)= 'sndrD4_g13',
   sattypes_rad(41)= 'sndrd1_g14',    dsis(41)= 'sndrD1_g14',
   sattypes_rad(42)= 'sndrd2_g14',    dsis(42)= 'sndrD2_g14',
   sattypes_rad(43)= 'sndrd3_g14',    dsis(43)= 'sndrD3_g14',
   sattypes_rad(44)= 'sndrd4_g14',    dsis(44)= 'sndrD4_g14',
   sattypes_rad(45)= 'sndrd1_g15',    dsis(45)= 'sndrD1_g15',
   sattypes_rad(46)= 'sndrd2_g15',    dsis(46)= 'sndrD2_g15',
   sattypes_rad(47)= 'sndrd3_g15',    dsis(47)= 'sndrD3_g15',
   sattypes_rad(48)= 'sndrd4_g15',    dsis(48)= 'sndrD4_g15',
   sattypes_rad(49)= 'iasi_metop-a',  dsis(49)= 'iasi_metop-a',
   sattypes_rad(50)= 'seviri_m08',    dsis(50)= 'seviri_m08',
   sattypes_rad(51)= 'seviri_m09',    dsis(51)= 'seviri_m09',
   sattypes_rad(52)= 'seviri_m10',    dsis(52)= 'seviri_m10',
   sattypes_rad(53)= 'seviri_m11',    dsis(53)= 'seviri_m11',
   sattypes_rad(54)= 'amsua_metop-b', dsis(54)= 'amsua_metop-b',
   sattypes_rad(55)= 'hirs4_metop-b', dsis(55)= 'hirs4_metop-b',
   sattypes_rad(56)= 'mhs_metop-b',   dsis(56)= 'mhs_metop-b',
   sattypes_rad(57)= 'iasi_metop-b',  dsis(57)= 'iasi_metop-b',
   sattypes_rad(58)= 'avhrr_metop-b', dsis(58)= 'avhrr3_metop-b',
   sattypes_rad(59)= 'atms_npp',      dsis(59)= 'atms_npp',
   sattypes_rad(60)= 'atms_n20',      dsis(60)= 'atms_n20',
   sattypes_rad(61)= 'cris_npp',      dsis(61)= 'cris_npp',
   sattypes_rad(62)= 'cris-fsr_npp',  dsis(62)= 'cris-fsr_npp',
   sattypes_rad(63)= 'cris-fsr_n20',  dsis(63)= 'cris-fsr_n20',
   sattypes_rad(64)= 'gmi_gpm',       dsis(64)= 'gmi_gpm',
   sattypes_rad(65)= 'saphir_meghat', dsis(65)= 'saphir_meghat',
   sattypes_rad(66)= 'amsua_metop-c', dsis(66)= 'amsua_metop-c',
   sattypes_rad(67)= 'mhs_metop-c',   dsis(67)= 'mhs_metop-c',
   sattypes_rad(68)= 'ahi_himawari8', dsis(68)= 'ahi_himawari8',
   sattypes_rad(69)= 'abi_g16',       dsis(69)= 'abi_g16',
   sattypes_rad(70)= 'abi_g17',       dsis(70)= 'abi_g17',
/

&ozobs_enkf
   sattypes_oz(1) = 'sbuv2_n16',
   sattypes_oz(2) = 'sbuv2_n17',
   sattypes_oz(3) = 'sbuv2_n18',
   sattypes_oz(4) = 'sbuv2_n19',
   sattypes_oz(5) = 'omi_aura',
   sattypes_oz(6) = 'gome_metop-a',
   sattypes_oz(7) = 'gome_metop-b',
   sattypes_oz(8) = 'mls30_aura',
   sattypes_oz(9) = 'ompsnp_npp',
   sattypes_oz(10) = 'ompstc8_npp',
/

&nam_fv3
   fv3fixpath="./",nx_res=_nx_res_,ny_res=_ny_res_,ntiles=1,l_fv3reg_filecombined=.false.,
/
